/*--------------------------------*- C++ -*----------------------------------*\
| =========                 |                                                 |
| \\      /  F ield         | OpenFOAM: The Open Source CFD Toolbox           |
|  \\    /   O peration     | Version:  1.6                                   |
|   \\  /    A nd           | Web:      http://www.OpenFOAM.org               |
|    \\/     M anipulation  |                                                 |
\*---------------------------------------------------------------------------*/
FoamFile
{
    version     2.0;
    format      ascii;
    class       volVectorField;
    object      U;
}
// * * * * * * * * * * * * * * * * * * * * * * * * * * * * * * * * * * * * * //

dimensions      [0 1 -1 0 0 0 0];

internalField   uniform (0 0 0);

boundaryField
{

    //wall
	CAD_patch1
    {
        type            slip;
    }
	CAD_patch3
    {

        type            slip;
    }
	fbBioin
    {
        //type            fixedValue;
        //value           uniform (0 0 0);
        type            slip;
    }

    fbOut
    {

        type            zeroGradient;
    }
	
    fbGasin
    {


        //type            fixedValue;
       // value           uniform (0 0 0.4208); Umf

	type            uniformFixedValue;        
	uniformValue     table
        (
            (0.000 (0 0 0.05))
            (2.000 (0 0 0.05))
            (2.100 (0 0 0.10))
            (4.100 (0 0 0.10))
	    (4.200 (0 0 0.15))
            (6.200 (0 0 0.15))
            (6.300 (0 0 0.20))
            (8.300 (0 0 0.20))
            (8.400 (0 0 0.25))
            (10.400 (0 0 0.25))
            (10.500 (0 0 0.30))
            (12.500 (0 0 0.30))
            (12.600 (0 0 0.35))
            (14.600 (0 0 0.35))
            (14.700 (0 0 0.40))
            (16.700 (0 0 0.40))
            (16.800 (0 0 0.45))
            (18.800 (0 0 0.45))
            (18.900 (0 0 0.50))
            (20.900 (0 0 0.50))
            (21.000 (0 0 0.55))
            (23.00 (0 0 0.55))
            (23.100 (0 0 0.60))
            (25.100 (0 0 0.60))
            (25.200 (0 0 0.65))
            (27.200 (0 0 0.65))
            (27.300 (0 0 0.70))
            (29.300 (0 0 0.70))
            (29.400 (0 0 0.75))
            (31.400 (0 0 0.75))
            (31.500 (0 0 0.8))
            (33.500 (0 0 0.8))
            (33.600 (0 0 0.85))
            (35.600 (0 0 0.85))
            (35.700 (0 0 0.90))
            (37.700 (0 0 0.90))
            (37.800 (0 0 0.95))
            (39.800 (0 0 0.95))
            (39.900 (0 0 1.00))
            (41.900 (0 0 1.00))
            (42.000 (0 0 1.05))
            (44.000 (0 0 1.05))
            (44.100 (0 0 1.10))
            (46.100 (0 0 1.10))
            (46.200 (0 0 1.15))
            (48.200 (0 0 1.15))
            (48.300 (0 0 1.20))
            (50.300 (0 0 1.20))
            (50.400 (0 0 1.25))
            (52.400 (0 0 1.25))
            (52.500 (0 0 1.30))
            (54.500 (0 0 1.30))
            (54.600 (0 0 1.35))
            (56.600 (0 0 1.35))
            (56.700 (0 0 1.40))
            (58.700 (0 0 1.40))
            (58.800 (0 0 1.45))
            (60.800 (0 0 1.45))
            (60.900 (0 0 1.50))
            (62.900 (0 0 1.50))
            (63.000 (0 0 1.55))
            (65.000 (0 0 1.55))
            (65.100 (0 0 1.60))
            (67.100 (0 0 1.60))
            (67.200 (0 0 1.65))
            (69.200 (0 0 1.65))
            (69.300 (0 0 1.70))
            (71.300 (0 0 1.70))
            (71.400 (0 0 1.75))
            (73.400 (0 0 1.75))
            (73.500 (0 0 1.80))
            (75.500 (0 0 1.80))
            (75.600 (0 0 1.85))
            (77.600 (0 0 1.85))
            (77.700 (0 0 1.90))
            (79.700 (0 0 1.90))
            (79.800 (0 0 1.95))
            (81.800 (0 0 1.95))
            (81.900 (0 0 2.00))
            (83.900 (0 0 2.00))
            (84.000 (0 0 2.05))
            (86.000 (0 0 2.05))
            (86.100 (0 0 2.1))
            (88.100 (0 0 2.1))
            (88.200 (0 0 2.15))
            (90.200 (0 0 2.15))
            (90.300 (0 0 2.2))
            (92.300 (0 0 2.2))
            (92.400 (0 0 2.25))
            (94.400 (0 0 2.25))
            (94.500 (0 0 2.3))
            (96.500 (0 0 2.3))
            (96.600 (0 0 2.35))
            (98.600 (0 0 2.35))
            (98.700 (0 0 2.4))
            (100.700 (0 0 2.4))
            (100.800 (0 0 2.45))
            (102.800 (0 0 2.45))
            (102.900 (0 0 2.5))
            (104.900 (0 0 2.5))
            (105.000 (0 0 2.55))
            (107.000 (0 0 2.55))
            (107.100 (0 0 2.60))
            (109.100 (0 0 2.60))
            (109.200 (0 0 2.65))
            (111.200 (0 0 2.65))
            (111.300 (0 0 2.70))
            (113.300 (0 0 2.70))
            (113.400 (0 0 2.75))
            (115.400 (0 0 2.75))
            (115.500 (0 0 2.80))
            (117.500 (0 0 2.80))
            (117.600 (0 0 2.85))
            (119.600 (0 0 2.85))            
	    (119.700 (0 0 2.90))
            (121.700 (0 0 2.90))
            (122.800 (0 0 2.95))
            (124.800 (0 0 2.95))
            (124.900 (0 0 3.00))
            (126.900 (0 0 3.00))
            (127.000 (0 0 3.05))
            (129.000 (0 0 3.05))
            (129.100 (0 0 3.1))
            (131.100 (0 0 3.1))
            (131.200 (0 0 3.15))
            (133.200 (0 0 3.15))
            (133.300 (0 0 3.2))
            (135.300 (0 0 3.2))
            (135.400 (0 0 3.25))
            (137.400 (0 0 3.25))
            (137.500 (0 0 3.3))
            (139.500 (0 0 3.3))
            (139.600 (0 0 3.35))
            (141.600 (0 0 3.35))
            (141.700 (0 0 3.4))
            (143.700 (0 0 3.4))
            (143.800 (0 0 3.45))
            (145.800 (0 0 3.45))
            (145.900 (0 0 3.5))
            (147.900 (0 0 3.5))
            (148.000 (0 0 3.55))
            (150.000 (0 0 3.55))
            (150.100 (0 0 3.60))
            (152.100 (0 0 3.60))
            (152.200 (0 0 3.65))
            (154.200 (0 0 3.65))
            (154.300 (0 0 3.70))
            (156.300 (0 0 3.70))
            (156.400 (0 0 3.75))
            (158.400 (0 0 3.75))
            (158.500 (0 0 3.80))
            (160.500 (0 0 3.80))
            (160.600 (0 0 3.85))
            (162.600 (0 0 3.85))            
	    (162.700 (0 0 3.90))
            (164.700 (0 0 3.90))
            (164.800 (0 0 3.95))
            (166.800 (0 0 3.95))
            (166.900 (0 0 4.00))
            (168.900 (0 0 4.00))
            (169.000 (0 0 4.05))
            (171.000 (0 0 4.05))
            (171.100 (0 0 4.10))
            (173.100 (0 0 4.10))
            (173.200 (0 0 4.15))
            (175.200 (0 0 4.15))
            (175.300 (0 0 4.20))
            (177.300 (0 0 4.20))
            (177.400 (0 0 4.25))
            (179.400 (0 0 4.25))
            (179.500 (0 0 4.30))
            (181.500 (0 0 4.30))
            (181.600 (0 0 4.35))
            (183.600 (0 0 4.35))
            (183.700 (0 0 4.40))
            (185.700 (0 0 4.40))
            (185.800 (0 0 4.45))
            (187.800 (0 0 4.45))
            (187.900 (0 0 4.50))
            (189.900 (0 0 4.50))
            (190.000 (0 0 4.55))
            (192.000 (0 0 4.55))
            (192.100 (0 0 4.60))
            (194.100 (0 0 4.60))
            (194.200 (0 0 4.65))
            (196.200 (0 0 4.65))
            (196.300 (0 0 4.70))
            (198.300 (0 0 4.70))
            (198.400 (0 0 4.75))
            (200.400 (0 0 4.75))
            (200.500 (0 0 4.80))
            (202.500 (0 0 4.80))
            (202.600 (0 0 4.85))
            (204.600 (0 0 4.85))
            (204.700 (0 0 4.90))
            (206.700 (0 0 4.90))
            (206.800 (0 0 4.95))
            (208.800 (0 0 4.95))
            (208.900 (0 0 5.00))
            (210.900 (0 0 5.00))
            (211.000 (0 0 5.05))
            (213.000 (0 0 5.05))
            (213.100 (0 0 5.10))
            (215.100 (0 0 5.10))
            (215.200 (0 0 5.15))
            (217.200 (0 0 5.15))
            (217.300 (0 0 5.20))
            (219.300 (0 0 5.20))
            (219.400 (0 0 5.25))
            (221.400 (0 0 5.25))
            (221.500 (0 0 5.30))
            (223.500 (0 0 5.30))
            (223.600 (0 0 5.35))
            (225.600 (0 0 5.35))
            (225.700 (0 0 5.40))
            (227.700 (0 0 5.40))
            (227.800 (0 0 5.45))
            (229.800 (0 0 5.45))
            (229.900 (0 0 5.50))
            (231.900 (0 0 5.50))
            (232.000 (0 0 5.55))
            (234.000 (0 0 5.55))
            (234.100 (0 0 5.60))
            (236.100 (0 0 5.60))
            (236.200 (0 0 5.65))
            (238.200 (0 0 5.65))
            (238.300 (0 0 5.70))
            (240.300 (0 0 5.70))
            (240.400 (0 0 5.75))
            (242.400 (0 0 5.75))
            (242.500 (0 0 5.80))
            (244.500 (0 0 5.80))
            (244.600 (0 0 5.85))
            (246.600 (0 0 5.85))
            (246.700 (0 0 5.90))
            (248.700 (0 0 5.90))
            (248.800 (0 0 5.95))
            (250.800 (0 0 5.95))
            (250.900 (0 0 6.00))
            (252.900 (0 0 6.00))
            (253.000 (0 0 6.05))
            (255.000 (0 0 6.05))
            (255.100 (0 0 6.10))
            (257.100 (0 0 6.10))
            (257.200 (0 0 6.15))
            (259.200 (0 0 6.15))
            (259.300 (0 0 6.20))
            (261.300 (0 0 6.20))
            (261.400 (0 0 6.25))
            (263.400 (0 0 6.25))
            (263.500 (0 0 6.30))
            (265.500 (0 0 6.30))
            (265.600 (0 0 6.35))
            (267.600 (0 0 6.35))
            (267.700 (0 0 6.40))
            (269.700 (0 0 6.40))
            (269.800 (0 0 6.45))
            (271.800 (0 0 6.45))
            (271.900 (0 0 6.50))
            (273.900 (0 0 6.50))
            (274.000 (0 0 6.55))
            (276.000 (0 0 6.55))
            (276.100 (0 0 6.60))
            (278.100 (0 0 6.60))
            (278.200 (0 0 6.65))
            (280.200 (0 0 6.65))
            (280.300 (0 0 6.70))
            (282.300 (0 0 6.70))
            (282.400 (0 0 6.75))
            (284.400 (0 0 6.75))
            (284.500 (0 0 6.80))
            (286.500 (0 0 6.80))
            (286.600 (0 0 6.85))
            (288.600 (0 0 6.85))
            (288.700 (0 0 6.90))
            (290.700 (0 0 6.90))
            (290.800 (0 0 6.95))
            (292.800 (0 0 6.95))
            (292.900 (0 0 7.00))
            (294.900 (0 0 7.00))
            (295.000 (0 0 7.05))
            (297.000 (0 0 7.05))
            (297.100 (0 0 7.10))
            (299.100 (0 0 7.10))
            (299.200 (0 0 7.15))
            (301.200 (0 0 7.15))
            (301.300 (0 0 7.20))
            (303.300 (0 0 7.20))
            (303.400 (0 0 7.25))
            (305.400 (0 0 7.25))
            (305.500 (0 0 7.30))
            (307.500 (0 0 7.30))
            (307.600 (0 0 7.35))
            (309.600 (0 0 7.35))
            (309.700 (0 0 7.40))
            (311.700 (0 0 7.40))
            (311.800 (0 0 7.45))
            (313.800 (0 0 7.45))
            (313.900 (0 0 7.50))
            (315.900 (0 0 7.50))
            (316.000 (0 0 7.55))
            (318.000 (0 0 7.55))
            (318.100 (0 0 7.60))
            (320.100 (0 0 7.60))
            (320.200 (0 0 7.65))
            (322.200 (0 0 7.65))
            (322.300 (0 0 7.70))
            (324.300 (0 0 7.70))
            (324.400 (0 0 7.75))
            (326.400 (0 0 7.75))
            (326.500 (0 0 7.80))
            (328.500 (0 0 7.80))
            (328.600 (0 0 7.85))
            (330.600 (0 0 7.85))
            (330.700 (0 0 7.90))
            (332.700 (0 0 7.90))
            (332.800 (0 0 7.95))
            (334.800 (0 0 7.95))
            (334.900 (0 0 8.00))
            (336.900 (0 0 8.00))
	);

        /*type            flowRateInletVelocity;
        flowRate        0.001;
        value           uniform (0 0 0);*/

/*        type            groovyBC;
        variables       "Uend=vector(0,0,0.02);tEnd=0.1;";
        valueExpression "((time() < tEnd) ? Uend/tEnd*time():Uend)";
        value           uniform (0 0 0);*/

        // 2.0.x, 1.6,ext
        /*type            timeVaryingUniformFixedValue;
        fileName        "steps_0p1s";
        outOfBounds     clamp;
        value           uniform (0 0 0);*/

        // 2.1.x or higher
       // type            uniformFixedValue;
      //  uniformValue     table
        (
     //       (0.000 (0 0 0.002))
      //      (0.100 (0 0 0.020))
        //上述用于得到Umf的大小
		//然后可用这个速度模拟持续一段时间，用此命令
        //type            fixedValue;
        //value           uniform (0 0 Umf);
		);
    }


}

// ************************************************************************* //
